Version 4
SHEET 1 964 1176
WIRE 208 96 144 96
WIRE 352 96 288 96
WIRE 688 96 672 96
WIRE 720 96 688 96
WIRE 864 96 784 96
WIRE -16 144 -16 96
WIRE 144 144 144 96
WIRE 864 144 864 96
WIRE -16 288 -16 224
WIRE 144 288 144 224
WIRE 864 288 864 224
WIRE 688 480 688 96
WIRE 688 480 128 480
WIRE -64 688 -128 688
WIRE 16 688 -64 688
WIRE 16 704 16 688
WIRE -128 720 -128 688
WIRE 16 800 16 784
WIRE 128 800 128 480
WIRE 128 800 16 800
WIRE 16 832 16 800
WIRE -272 880 -384 880
WIRE -128 880 -128 800
WIRE -128 880 -208 880
WIRE -48 880 -128 880
WIRE -128 944 -128 880
WIRE 16 944 16 928
WIRE 128 944 16 944
WIRE 16 976 16 944
WIRE 128 976 128 944
WIRE -128 1056 -128 1024
WIRE 16 1056 -128 1056
WIRE 128 1056 128 1040
WIRE 128 1056 16 1056
WIRE 16 1136 16 1056
FLAG -16 288 0
FLAG -16 96 VCC
FLAG 144 288 0
FLAG 352 96 VIN
FLAG 864 288 0
FLAG 672 96 VL-IN
FLAG 16 1136 0
FLAG -64 688 VCC
FLAG 16 944 VE-CE
FLAG 128 800 VO-CE
FLAG -128 880 VB-CE
FLAG -384 880 VIN
FLAG 864 96 VOUT
SYMBOL voltage -16 128 R0
WINDOW 123 0 0 Left 0
WINDOW 39 0 0 Left 0
SYMATTR InstName V1
SYMATTR Value 9
SYMBOL voltage 144 128 R0
WINDOW 123 24 124 Left 2
WINDOW 39 0 0 Left 0
SYMATTR Value2 AC 1
SYMATTR InstName V2
SYMATTR Value SINE(0 0.88 1k)
SYMBOL res 304 80 R90
WINDOW 0 0 56 VBottom 2
WINDOW 3 32 56 VTop 2
SYMATTR InstName R1
SYMATTR Value 50
SYMBOL cap 784 80 R90
WINDOW 0 0 32 VBottom 2
WINDOW 3 32 32 VTop 2
SYMATTR InstName C1
SYMATTR Value 10µ
SYMBOL res 848 128 R0
SYMATTR InstName R2
SYMATTR Value 1k
SYMBOL npn -48 832 R0
SYMATTR InstName Q1
SYMATTR Value 2N3904
SYMBOL res -144 928 R0
SYMATTR InstName R6
SYMATTR Value 68k
SYMBOL res -144 704 R0
SYMATTR InstName R5
SYMATTR Value 284.6k
SYMBOL res 0 960 R0
SYMATTR InstName R4
SYMATTR Value 3.43k
SYMBOL res 0 688 R0
SYMATTR InstName R3
SYMATTR Value 10.75k
SYMBOL cap 112 976 R0
SYMATTR InstName C2
SYMATTR Value 220µ
SYMBOL cap -208 864 R90
WINDOW 0 0 32 VBottom 2
WINDOW 3 32 32 VTop 2
SYMATTR InstName C3
SYMATTR Value 3.3µ
TEXT 752 840 Left 2 !.tran 500m
