Version 4
SHEET 1 964 1176
WIRE 208 96 144 96
WIRE 352 96 288 96
WIRE 720 96 672 96
WIRE 864 96 784 96
WIRE -16 144 -16 96
WIRE 144 144 144 96
WIRE 864 144 864 96
WIRE -16 288 -16 224
WIRE 144 288 144 224
WIRE 864 288 864 224
WIRE -64 688 -128 688
WIRE 16 688 -64 688
WIRE 16 704 16 688
WIRE -128 720 -128 688
WIRE 656 720 592 720
WIRE 704 720 656 720
WIRE 592 752 592 720
WIRE 16 800 16 784
WIRE 128 800 16 800
WIRE 16 832 16 800
WIRE 704 832 704 720
WIRE -272 880 -384 880
WIRE -128 880 -128 800
WIRE -128 880 -208 880
WIRE -48 880 -128 880
WIRE 592 880 592 832
WIRE 592 880 512 880
WIRE 640 880 592 880
WIRE -128 944 -128 880
WIRE 16 944 16 928
WIRE 128 944 16 944
WIRE 704 960 704 928
WIRE 784 960 704 960
WIRE 16 976 16 944
WIRE 128 976 128 944
WIRE 704 976 704 960
WIRE -128 1056 -128 1024
WIRE 16 1056 -128 1056
WIRE 128 1056 128 1040
WIRE 128 1056 16 1056
WIRE 704 1104 704 1056
WIRE 16 1136 16 1056
FLAG -16 288 0
FLAG -16 96 VCC
FLAG 144 288 0
FLAG 352 96 VIN
FLAG 864 288 0
FLAG 672 96 VL-IN
FLAG 16 1136 0
FLAG -64 688 VCC
FLAG 16 944 VE-CE
FLAG 128 800 VO-CE
FLAG -128 880 VB-CE
FLAG -384 880 VIN
FLAG 864 96 VOUT
FLAG 656 720 VCC
FLAG 704 1104 0
FLAG 784 960 VO-CC
SYMBOL voltage -16 128 R0
WINDOW 123 0 0 Left 0
WINDOW 39 0 0 Left 0
SYMATTR InstName V1
SYMATTR Value 9
SYMBOL voltage 144 128 R0
WINDOW 123 24 124 Left 2
WINDOW 39 0 0 Left 0
SYMATTR Value2 AC 1
SYMATTR InstName V2
SYMATTR Value SINE(0 15m 1k)
SYMBOL res 304 80 R90
WINDOW 0 0 56 VBottom 2
WINDOW 3 32 56 VTop 2
SYMATTR InstName R1
SYMATTR Value 50
SYMBOL cap 784 80 R90
WINDOW 0 0 32 VBottom 2
WINDOW 3 32 32 VTop 2
SYMATTR InstName C1
SYMATTR Value 10µ
SYMBOL res 848 128 R0
SYMATTR InstName R2
SYMATTR Value 1k
SYMBOL npn -48 832 R0
SYMATTR InstName Q1
SYMATTR Value 2N3904
SYMBOL res -144 928 R0
SYMATTR InstName R6
SYMATTR Value 68k
SYMBOL res -144 704 R0
SYMATTR InstName R5
SYMATTR Value 284.6k
SYMBOL res 0 960 R0
SYMATTR InstName R4
SYMATTR Value 3.43k
SYMBOL res 0 688 R0
SYMATTR InstName R3
SYMATTR Value 10.75k
SYMBOL cap 112 976 R0
SYMATTR InstName C2
SYMATTR Value 220µ
SYMBOL cap -208 864 R90
WINDOW 0 0 32 VBottom 2
WINDOW 3 32 32 VTop 2
SYMATTR InstName C3
SYMATTR Value 3.3µ
SYMBOL npn 640 832 R0
SYMATTR InstName Q2
SYMATTR Value 2N3904
SYMBOL res 688 960 R0
SYMATTR InstName R7
SYMATTR Value 430
SYMBOL res 576 736 R0
SYMATTR InstName R8
SYMATTR Value 114.3k
SYMBOL cap 512 864 R90
WINDOW 0 0 32 VBottom 2
WINDOW 3 32 32 VTop 2
SYMATTR InstName C4
SYMATTR Value 1µ
TEXT -444 1160 Left 2 !.op
